<routes xmlns:xsi="http://www.w3.org/2001/XMLSchema-instance" xsi:noNamespaceSchemaLocation="http://sumo.dlr.de/xsd/routes_file.xsd">
    <flow id="flow_0" begin="0.00" from="10712011" to="4006676" end="3600.00" period="15.00"/>
    <flow id="flow_1" begin="0.00" from="125685391" to="4047316" end="3600.00" period="15.00"/>
    <flow id="flow_10" begin="0.00" from="-39539626" to="30357194" end="3600.00" period="15.00"/>
    <flow id="flow_11" begin="0.00" from="-125685391" to="8402998#0" via="29900564#3" end="3600.00" period="15.00"/>
    <flow id="flow_12" begin="0.00" from="-4006693#0" to="125685391" via="-29900564#0 -4006674#2" end="3600.00" period="15.00"/>
<flow id="flow_13" begin="0.00" from="10419402" to="-29900564#1" end="3600.00" period="12.0"/>
<flow id="flow_14" begin="0.00" from="23341293" to="-29900565#0" via="-29900564#0 -4006674#3 -4006682 32302591#5" end="3600.00" period="12.0"/>
    <flow id="flow_2" begin="0.00" from="-25398494#0" to="30357194" end="3600.00" period="15.00"/>
    <flow id="flow_3" begin="0.00" from="-10425131" to="-10419402" end="3600.00" period="15.00"/>
    <flow id="flow_4" begin="0.00" from="39539626" to="-4690348" via="33174302#1 25472079" end="3600.00" period="20.00"/>
    <flow id="flow_5" begin="0.00" from="33174302#1" to="25398494#0" end="3600.00" period="20.00"/>
    <flow id="flow_6" begin="0.00" from="8402998#3" to="26188722" via="33174302#1" end="3600.00" period="20.00"/>
    <flow id="flow_7" begin="0.00" from="125685391" to="23341293" end="3600.00" period="20.00"/>
    <flow id="flow_8" begin="0.00" from="-4006674#0" to="30357194" end="3600.00" period="20.00"/>
    <flow id="flow_9" begin="0.00" from="-4006676" to="-10419402" via="23605600#0" end="3600.00" period="20.00"/>
</routes>
